
  ACD/Labs06262022222D

 40 39  0  0  0  0  0  0  0  0  1 V2000
    5.9911   -6.1573    0.0000 C   0  0  0  0  0  0  0  0  0  0  0  0
    7.1429   -5.4923    0.0000 C   0  0  0  0  0  0  0  0  0  0  0  0
    8.2947   -6.1573    0.0000 C   0  0  0  0  0  0  0  0  0  0  0  0
    9.4465   -5.4923    0.0000 C   0  0  0  0  0  0  0  0  0  0  0  0
   10.5983   -6.1573    0.0000 C   0  0  0  0  0  0  0  0  0  0  0  0
   11.7501   -5.4923    0.0000 C   0  0  0  0  0  0  0  0  0  0  0  0
   12.9020   -6.1573    0.0000 C   0  0  0  0  0  0  0  0  0  0  0  0
   14.0538   -5.4923    0.0000 C   0  0  0  0  0  0  0  0  0  0  0  0
   15.2056   -6.1573    0.0000 C   0  0  0  0  0  0  0  0  0  0  0  0
   16.3574   -5.4923    0.0000 C   0  0  0  0  0  0  0  0  0  0  0  0
   17.5092   -6.1573    0.0000 C   0  0  0  0  0  0  0  0  0  0  0  0
   18.6610   -5.4923    0.0000 C   0  0  0  0  0  0  0  0  0  0  0  0
   19.8128   -6.1573    0.0000 C   0  0  0  0  0  0  0  0  0  0  0  0
   20.9647   -5.4923    0.0000 C   0  0  0  0  0  0  0  0  0  0  0  0
   22.1165   -6.1573    0.0000 C   0  0  0  0  0  0  0  0  0  0  0  0
   23.2683   -5.4923    0.0000 C   0  0  0  0  0  0  0  0  0  0  0  0
   24.4201   -6.1573    0.0000 C   0  0  0  0  0  0  0  0  0  0  0  0
   25.5719   -5.4923    0.0000 C   0  0  0  0  0  0  0  0  0  0  0  0
   26.7237   -6.1573    0.0000 C   0  0  0  0  0  0  0  0  0  0  0  0
   27.8755   -5.4923    0.0000 C   0  0  0  0  0  0  0  0  0  0  0  0
   29.0274   -6.1573    0.0000 C   0  0  0  0  0  0  0  0  0  0  0  0
    7.1429   -4.1623    0.0000 C   0  0  0  0  0  0  0  0  0  0  0  0
   11.7501   -4.1623    0.0000 C   0  0  0  0  0  0  0  0  0  0  0  0
   16.3574   -4.1623    0.0000 C   0  0  0  0  0  0  0  0  0  0  0  0
    4.8393   -5.4923    0.0000 C   0  0  0  0  0  0  0  0  0  0  0  0
    3.6874   -6.1573    0.0000 C   0  0  0  0  0  0  0  0  0  0  0  0
    2.5356   -5.4923    0.0000 C   0  0  0  0  0  0  0  0  0  0  0  0
    2.5356   -4.1623    0.0000 C   0  0  0  0  0  0  0  0  0  0  0  0
    1.3838   -6.1573    0.0000 C   0  0  0  0  0  0  0  0  0  0  0  0
   30.1792   -5.4923    0.0000 C   0  0  0  0  0  0  0  0  0  0  0  0
   31.3310   -6.1573    0.0000 C   0  0  0  0  0  0  0  0  0  0  0  0
   32.4828   -5.4923    0.0000 C   0  0  0  0  0  0  0  0  0  0  0  0
   33.6346   -6.1573    0.0000 C   0  0  0  0  0  0  0  0  0  0  0  0
   34.7864   -5.4923    0.0000 C   0  0  0  0  0  0  0  0  0  0  0  0
   35.9382   -6.1573    0.0000 C   0  0  0  0  0  0  0  0  0  0  0  0
   22.1165   -7.4873    0.0000 C   0  0  0  0  0  0  0  0  0  0  0  0
   26.7237   -7.4873    0.0000 C   0  0  0  0  0  0  0  0  0  0  0  0
   31.3310   -7.4873    0.0000 C   0  0  0  0  0  0  0  0  0  0  0  0
   37.0436   -5.4176    0.0000 C   0  0  0  0  0  0  0  0  0  0  0  0
   36.0542   -7.6755    0.0000 C   0  0  0  0  0  0  0  0  0  0  0  0
  2  1  1  0  0  0  0
  3  2  2  0  0  0  0
  4  3  1  0  0  0  0
  5  4  2  0  0  0  0
  6  5  1  0  0  0  0
  7  6  2  0  0  0  0
  8  7  1  0  0  0  0
  9  8  2  0  0  0  0
 10  9  1  0  0  0  0
 11 10  2  0  0  0  0
 12 11  1  0  0  0  0
 13 12  2  0  0  0  0
 14 13  1  0  0  0  0
 15 14  2  0  0  0  0
 16 15  1  0  0  0  0
 17 16  2  0  0  0  0
 18 17  1  0  0  0  0
 19 18  2  0  0  0  0
 20 19  1  0  0  0  0
 21 20  2  0  0  0  0
  2 22  1  0  0  0  0
 23  6  1  0  0  0  0
 24 10  1  0  0  0  0
  1 25  1  0  0  0  0
 25 26  1  0  0  0  0
 26 27  2  0  0  0  0
 27 28  1  0  0  0  0
 27 29  1  0  0  0  0
 30 31  2  0  0  0  0
 31 32  1  0  0  0  0
 32 33  1  0  0  0  0
 33 34  1  0  0  0  0
 34 35  2  0  0  0  0
 21 30  1  0  0  0  0
 15 36  1  0  0  0  0
 19 37  1  0  0  0  0
 31 38  1  0  0  0  0
 39 35  1  0  0  0  0
 35 40  1  0  0  0  0
M  END
